[General]
network = SourceSink
scheduler-class = PollScheduler
sim-time-limit = 120s
user-interface = Cmdenv
cmdenv-express-mode = false
cmdenv-event-banners = false
SourceSink.*.broadcast = 255


[Config a113]
SourceSink.*.address = 113
seed-set = 1104

[Config a117]
SourceSink.*.address = 117
seed-set = 1111